# generated using pymatgen
data_BN
_symmetry_space_group_name_H-M   'P 1'
_cell_length_a   2.51242823
_cell_length_b   2.51242823
_cell_length_c   7.70726500
_cell_angle_alpha   90.00000000
_cell_angle_beta   90.00000000
_cell_angle_gamma   120.00000000
_symmetry_Int_Tables_number   1
_chemical_formula_structural   BN
_chemical_formula_sum   'B2 N2'
_cell_volume   42.13259918
_cell_formula_units_Z   2
loop_
 _symmetry_equiv_pos_site_id
 _symmetry_equiv_pos_as_xyz
  1  'x, y, z'
loop_
 _atom_type_symbol
 _atom_type_oxidation_number
  B3+  3.0
  N3-  -3.0
loop_
 _atom_site_type_symbol
 _atom_site_label
 _atom_site_symmetry_multiplicity
 _atom_site_fract_x
 _atom_site_fract_y
 _atom_site_fract_z
 _atom_site_occupancy
  B3+  B0  1  0.33333333  0.66666667  0.25000000  1
  N3-  N3  1  0.66666667  0.33333333  0.25000000  1
